tests/data/power_flow/three-winding-transformer/sym_output_batch.json
{
  "version": "1.0",
  "type": "sym_output",
  "is_batch": true,
  "attributes": {},
  "data": [
    {
      "node": [
        {
          "id": 1,
          "u_pu": 1.0,
          "u": 138000.0,
          "u_angle": -7.392151529635133e-18
        },
        {
          "id": 2,
          "u_pu": 1.0700992555831268,
          "u": 73836.84863523576,
          "u_angle": 0.5235987755982993
        },
        {
          "id": 3,
          "u_pu": 1.0700992555831268,
          "u": 14767.36972704715,
          "u_angle": 0.5235987755982991
        }
      ],
      "three_winding_transformer": [
        {
          "id": 4,
          "loading_1": 0.0,
          "loading_2": 0.0,
          "loading_3": 0.0,
          "loading": 0.0,
          "p_1": 4.618527782440651e-08,
          "q_1": -5.6843418860808015e-08,
          "i_1": 3.0641848386786175e-13,
          "p_2": 2.4331240083100226e-07,
          "q_2": -4.214294403508595e-07,
          "i_2": 3.80505080358796e-12,
          "p_3": 4.074710081946558e-09,
          "q_3": -6.788570509579508e-08,
          "i_3": 2.65886007958215e-12
        }
      ]
    },
    {
      "node": [
        {
          "id": 1,
          "u_pu": 1.0,
          "u": 138000.0,
          "u_angle": -4.251434640259467e-18
        },
        {
          "id": 2,
          "u_pu": 1.0476768903735196,
          "u": 72289.70543577286,
          "u_angle": 0.5235987755982996
        },
        {
          "id": 3,
          "u_pu": 1.0476768903735199,
          "u": 14457.941087154575,
          "u_angle": 0.5235987755982996
        }
      ],
      "three_winding_transformer": [
        {
          "id": 4,
          "loading_1": 0.0,
          "loading_2": 0.0,
          "loading_3": 0.0,
          "loading": 0.0,
          "p_1": 0.0,
          "q_1": 0.0,
          "i_1": 0.0,
          "p_2": 0.0,
          "q_2": 0.0,
          "i_2": 0.0,
          "p_3": 0.0,
          "q_3": 0.0,
          "i_3": 0.0
        }
      ]
    },
    {
      "node": [
        {
          "id": 1,
          "u_pu": 1.0,
          "u": 138000.0,
          "u_angle": 6.745427021506159e-18
        },
        {
          "id": 2,
          "u_pu": 1.026174895895291,
          "u": 70806.06781677509,
          "u_angle": 0.5235987755983077
        },
        {
          "id": 3,
          "u_pu": 1.0261748958952912,
          "u": 14161.213563355019,
          "u_angle": 0.5235987755983075
        }
      ],
      "three_winding_transformer": [
        {
          "id": 4,
          "loading_1": 0.0,
          "loading_2": 0.0,
          "loading_3": 0.0,
          "loading": 0.0,
          "p_1": 0.0,
          "q_1": 0.0,
          "i_1": 0.0,
          "p_2": 0.0,
          "q_2": 0.0,
          "i_2": 0.0,
          "p_3": 0.0,
          "q_3": 0.0,
          "i_3": 0.0
        }
      ]
    },
    {
      "node": [
        {
          "id": 1,
          "u_pu": 0.9999999999999999,
          "u": 137999.99999999997,
          "u_angle": 8.294783265050233e-18
        },
        {
          "id": 2,
          "u_pu": 1.005537744097936,
          "u": 69382.10434275758,
          "u_angle": 0.5235987755982993
        },
        {
          "id": 3,
          "u_pu": 1.0055377440979363,
          "u": 13876.420868551522,
          "u_angle": 0.5235987755982991
        }
      ],
      "three_winding_transformer": [
        {
          "id": 4,
          "loading_1": 0.0,
          "loading_2": 0.0,
          "loading_3": 0.0,
          "loading": 0.0,
          "p_1": 0.0,
          "q_1": 0.0,
          "i_1": 0.0,
          "p_2": 0.0,
          "q_2": 0.0,
          "i_2": 0.0,
          "p_3": 0.0,
          "q_3": 0.0,
          "i_3": 0.0
        }
      ]
    },
    {
      "node": [
        {
          "id": 1,
          "u_pu": 1.0,
          "u": 138000.0,
          "u_angle": -5.779229818053184e-18
        },
        {
          "id": 2,
          "u_pu": 0.9857142857143273,
          "u": 68014.28571428858,
          "u_angle": 0.5235987755982987
        },
        {
          "id": 3,
          "u_pu": 0.9857142857143276,
          "u": 13602.857142857722,
          "u_angle": 0.5235987755982985
        }
      ],
      "three_winding_transformer": [
        {
          "id": 4,
          "loading_1": 0.0,
          "loading_2": 0.0,
          "loading_3": 0.0,
          "loading": 0.0,
          "p_1": 0.0,
          "q_1": 0.0,
          "i_1": 0.0,
          "p_2": 0.0,
          "q_2": 0.0,
          "i_2": 0.0,
          "p_3": 0.0,
          "q_3": 0.0,
          "i_3": 0.0
        }
      ]
    },
    {
      "node": [
        {
          "id": 1,
          "u_pu": 1.0000000000000002,
          "u": 138000.00000000003,
          "u_angle": -1.2815867477037476e-17
        },
        {
          "id": 2,
          "u_pu": 0.9666573269827555,
          "u": 66699.35556181014,
          "u_angle": 0.5235987755982942
        },
        {
          "id": 3,
          "u_pu": 0.9666573269827557,
          "u": 13339.871112362029,
          "u_angle": 0.523598775598294
        }
      ],
      "three_winding_transformer": [
        {
          "id": 4,
          "loading_1": 0.0,
          "loading_2": 0.0,
          "loading_3": 0.0,
          "loading": 0.0,
          "p_1": 0.0,
          "q_1": 0.0,
          "i_1": 0.0,
          "p_2": 0.0,
          "q_2": 0.0,
          "i_2": 0.0,
          "p_3": 0.0,
          "q_3": 0.0,
          "i_3": 0.0
        }
      ]
    },
    {
      "node": [
        {
          "id": 1,
          "u_pu": 0.9999999999999989,
          "u": 137999.99999999985,
          "u_angle": 1.1545196650599027e-16
        },
        {
          "id": 2,
          "u_pu": 0.9483232545324306,
          "u": 65434.30456273771,
          "u_angle": 0.5235987755983207
        },
        {
          "id": 3,
          "u_pu": 0.9483232545324308,
          "u": 13086.860912547547,
          "u_angle": 0.5235987755983207
        }
      ],
      "three_winding_transformer": [
        {
          "id": 4,
          "loading_1": 0.0,
          "loading_2": 0.0,
          "loading_3": 0.0,
          "loading": 0.0,
          "p_1": 0.0,
          "q_1": 0.0,
          "i_1": 0.0,
          "p_2": 0.0,
          "q_2": 0.0,
          "i_2": 0.0,
          "p_3": 0.0,
          "q_3": 0.0,
          "i_3": 0.0
        }
      ]
    },
    {
      "node": [
        {
          "id": 1,
          "u_pu": 0.9999999999999999,
          "u": 137999.99999999997,
          "u_angle": 1.423130845955364e-17
        },
        {
          "id": 2,
          "u_pu": 0.9306717021850557,
          "u": 64216.34745076884,
          "u_angle": 0.5235987755982993
        },
        {
          "id": 3,
          "u_pu": 0.930671702185056,
          "u": 12843.269490153772,
          "u_angle": 0.5235987755982991
        }
      ],
      "three_winding_transformer": [
        {
          "id": 4,
          "loading_1": 0.0,
          "loading_2": 0.0,
          "loading_3": 0.0,
          "loading": 0.0,
          "p_1": 0.0,
          "q_1": 0.0,
          "i_1": 0.0,
          "p_2": 0.0,
          "q_2": 0.0,
          "i_2": 0.0,
          "p_3": 0.0,
          "q_3": 0.0,
          "i_3": 0.0
        }
      ]
    },
    {
      "node": [
        {
          "id": 1,
          "u_pu": 1.0,
          "u": 138000.0,
          "u_angle": 5.482216107817325e-18
        },
        {
          "id": 2,
          "u_pu": 0.9136652542372882,
          "u": 63042.90254237289,
          "u_angle": 0.5235987755982996
        },
        {
          "id": 3,
          "u_pu": 0.9136652542372884,
          "u": 12608.580508474579,
          "u_angle": 0.5235987755982995
        }
      ],
      "three_winding_transformer": [
        {
          "id": 4,
          "loading_1": 0.0,
          "loading_2": 0.0,
          "loading_3": 0.0,
          "loading": 0.0,
          "p_1": 0.0,
          "q_1": 0.0,
          "i_1": 0.0,
          "p_2": 0.0,
          "q_2": 0.0,
          "i_2": 0.0,
          "p_3": 0.0,
          "q_3": 0.0,
          "i_3": 0.0
        }
      ]
    },
    {
      "node": [
        {
          "id": 1,
          "u_pu": 1.0000000000000002,
          "u": 138000.00000000003,
          "u_angle": -1.4108354825883456e-17
        },
        {
          "id": 2,
          "u_pu": 0.8972691807542262,
          "u": 61911.57347204161,
          "u_angle": 0.5235987755982995
        },
        {
          "id": 3,
          "u_pu": 0.8972691807542263,
          "u": 12382.314694408324,
          "u_angle": 0.5235987755982994
        }
      ],
      "three_winding_transformer": [
        {
          "id": 4,
          "loading_1": 0.0,
          "loading_2": 0.0,
          "loading_3": 0.0,
          "loading": 0.0,
          "p_1": 0.0,
          "q_1": 0.0,
          "i_1": 0.0,
          "p_2": 0.0,
          "q_2": 0.0,
          "i_2": 0.0,
          "p_3": 0.0,
          "q_3": 0.0,
          "i_3": 0.0
        }
      ]
    }
  ]
}
